Circuit: * C:\Users\jck_5\Desktop\myFiles\Courses\Term4\Electronics 2\Project\project2\SPICE\Design\Draft1.asc

Direct Newton iteration for .op point succeeded.

Date: Tue Jul 09 19:25:12 2024
Total elapsed time: 0.087 seconds.

tnom = 27
temp = 27
method = modified trap
totiter = 643
traniter = 634
tranpoints = 318
accept = 318
rejected = 0
matrix size = 13
fillins = 0
solver = Normal
Matrix Compiler1: 460 bytes object code size  0.1/0.1/[0.1]
Matrix Compiler2: off  [0.1]/0.1/0.1

